Version 4
SHEET 1 3552 680
WIRE 1920 -512 1920 -576
WIRE 1040 -480 960 -480
WIRE 960 -464 960 -480
WIRE 1040 -448 1040 -480
WIRE 1600 -384 960 -384
WIRE 1920 -384 1920 -432
WIRE 2224 -384 1920 -384
WIRE 2928 -384 2224 -384
WIRE 960 -336 960 -384
WIRE 960 -336 512 -336
WIRE 2336 -336 2320 -336
WIRE 512 -304 512 -336
WIRE 2160 -272 1968 -272
WIRE 2256 -272 2256 -336
WIRE 2256 -272 2160 -272
WIRE 2336 -272 2336 -336
WIRE 2464 -272 2336 -272
WIRE 2752 -272 2464 -272
WIRE 3008 -272 2752 -272
WIRE 2256 -208 2256 -272
WIRE 2336 -208 2336 -272
WIRE 512 -192 512 -224
WIRE 720 -192 512 -192
WIRE 2464 -192 2464 -272
WIRE 2464 -192 2416 -192
WIRE 2512 -192 2464 -192
WIRE 2416 -176 2416 -192
WIRE 512 -160 512 -192
WIRE 2160 -160 2160 -272
WIRE 1424 -112 1376 -112
WIRE 2464 -112 2416 -112
WIRE 2512 -112 2464 -112
WIRE 720 -96 720 -192
WIRE 1376 -80 1376 -112
WIRE 512 -64 512 -80
WIRE 656 -64 512 -64
WIRE 1600 -16 1600 -384
WIRE 1600 -16 1536 -16
WIRE 960 0 960 -336
WIRE 960 0 896 0
WIRE 1424 0 1424 -112
WIRE 1472 0 1424 0
WIRE 3008 0 3008 -272
WIRE 3008 0 2896 0
WIRE 3088 0 3008 0
WIRE 3152 0 3088 0
WIRE 512 16 512 -64
WIRE 656 16 656 -64
WIRE 816 16 656 16
WIRE 1568 16 1536 16
WIRE 2160 16 2160 -96
WIRE 2160 16 2112 16
WIRE 2256 16 2160 16
WIRE 2464 16 2464 -112
WIRE 2464 16 2320 16
WIRE 2544 16 2464 16
WIRE 2672 16 2608 16
WIRE 2736 16 2672 16
WIRE 2800 16 2736 16
WIRE 896 32 896 16
WIRE 960 32 896 32
WIRE 1472 32 1424 32
WIRE 1616 32 1584 32
WIRE 1632 32 1616 32
WIRE 1744 32 1712 32
WIRE 1824 32 1744 32
WIRE 2016 32 1824 32
WIRE 2928 32 2928 -384
WIRE 2928 32 2896 32
WIRE 720 48 720 -16
WIRE 816 48 720 48
WIRE 1584 48 1584 32
WIRE 1584 48 1536 48
WIRE 2224 48 2224 -384
WIRE 2224 48 2112 48
WIRE 2752 48 2752 -272
WIRE 2800 48 2752 48
WIRE 0 64 -64 64
WIRE 16 64 0 64
WIRE 96 64 64 64
WIRE 448 64 96 64
WIRE 464 64 448 64
WIRE 1040 64 896 64
WIRE 1184 64 1040 64
WIRE 1280 64 1280 32
WIRE 1280 64 1184 64
WIRE 1968 64 1968 -272
WIRE 2016 64 1968 64
WIRE 3008 64 2896 64
WIRE -64 80 -64 64
WIRE 464 80 464 64
WIRE 720 80 720 48
WIRE 2240 80 2112 80
WIRE 2736 128 2736 16
WIRE 3232 128 2736 128
WIRE 512 144 512 112
WIRE 2672 144 2672 80
WIRE 3232 160 3232 128
WIRE -64 176 -64 160
WIRE 1424 192 1424 32
WIRE 1440 192 1424 192
WIRE 1616 192 1616 32
WIRE 1616 192 1520 192
WIRE 448 240 448 64
WIRE 560 240 512 240
WIRE 1040 240 1040 64
WIRE 1040 240 560 240
WIRE 3328 256 3232 256
WIRE 960 288 960 32
WIRE 1568 288 1568 16
WIRE 1568 288 960 288
WIRE 2240 288 2240 80
WIRE 2240 288 2000 288
WIRE 3008 288 3008 64
WIRE 3008 288 2240 288
WIRE 2000 336 2000 288
WIRE 3168 336 3168 208
WIRE 960 352 960 288
WIRE 448 368 448 240
WIRE 528 368 512 368
WIRE 560 368 560 240
WIRE 560 368 528 368
WIRE 960 368 960 352
WIRE 2000 448 2000 416
WIRE 3168 496 3168 416
WIRE 3168 640 3168 576
FLAG -64 176 0
FLAG 96 64 Vrad_out
FLAG 720 160 0
FLAG 1040 -448 0
FLAG 960 432 0
FLAG 1184 64 Vout2
FLAG 512 144 0
FLAG 1376 -80 0
FLAG 1824 32 Vout3
FLAG 1344 112 0
FLAG 1744 96 0
FLAG 2672 224 0
FLAG 2000 448 0
FLAG 1920 -576 0
FLAG 3088 0 vout4
FLAG 3328 256 0
FLAG 3168 640 0
SYMBOL cap 64 48 R90
WINDOW 0 0 32 VBottom 2
WINDOW 3 32 32 VTop 2
SYMATTR InstName C1
SYMATTR Value 2.2p
SYMBOL cap 512 224 R90
WINDOW 0 0 32 VBottom 2
WINDOW 3 32 32 VTop 2
SYMATTR InstName C4
SYMATTR Value 2.2p
SYMBOL res 496 -320 R0
SYMATTR InstName R1
SYMATTR Value 1.2K
SYMBOL res 496 -176 R0
SYMATTR InstName R2
SYMATTR Value 40
SYMBOL res 704 -112 R0
SYMATTR InstName R3
SYMATTR Value 0.3K
SYMBOL res 704 64 R0
SYMATTR InstName R4
SYMATTR Value 4.5K
SYMBOL res 544 352 R90
WINDOW 0 0 56 VBottom 2
WINDOW 3 32 56 VTop 2
SYMATTR InstName R5
SYMATTR Value 50Meg
SYMBOL AutoGenerated\\AD817 848 32 R0
SYMATTR InstName U1
SYMBOL voltage 960 -368 R180
WINDOW 0 24 96 Left 2
WINDOW 3 24 16 Left 2
WINDOW 123 0 0 Left 0
WINDOW 39 0 0 Left 0
SYMATTR InstName +VCC
SYMATTR Value +5
SYMBOL voltage 960 336 R0
WINDOW 123 0 0 Left 0
WINDOW 39 0 0 Left 0
SYMATTR InstName -VCC
SYMATTR Value -5
SYMBOL njf 464 16 R0
SYMATTR InstName J1
SYMATTR Value 2N3819
SYMBOL voltage -64 64 R0
WINDOW 123 0 0 Left 0
WINDOW 39 0 0 Left 0
SYMATTR InstName V1
SYMATTR Value PULSE(0 0.1 0 1p 1p 0.03 0.05 4)
SYMBOL cap 1728 32 R0
SYMATTR InstName C2
SYMATTR Value 0.1µ
SYMBOL res 1728 16 R90
WINDOW 0 0 56 VBottom 2
WINDOW 3 32 56 VTop 2
SYMATTR InstName R6
SYMATTR Value 0.2k
SYMBOL cap 1344 16 R90
WINDOW 0 0 32 VBottom 2
WINDOW 3 32 32 VTop 2
SYMATTR InstName C3
SYMATTR Value 0.1µ
SYMBOL res 1536 176 R90
WINDOW 0 0 56 VBottom 2
WINDOW 3 32 56 VTop 2
SYMATTR InstName R9
SYMATTR Value 600k
SYMBOL res 1328 16 R0
WINDOW 0 -8 72 Left 2
SYMATTR InstName R7
SYMATTR Value 0.1k
SYMBOL res 1440 16 R90
WINDOW 0 0 56 VBottom 2
WINDOW 3 32 56 VTop 2
SYMATTR InstName R8
SYMATTR Value 0.1k
SYMBOL AutoGenerated\\OPA604E 1504 16 R0
SYMATTR InstName U3
SYMBOL diode 2256 32 R270
WINDOW 0 32 32 VTop 2
WINDOW 3 0 32 VBottom 2
SYMATTR InstName D1
SYMATTR Value BAV199HM
SYMBOL diode 2544 32 R270
WINDOW 0 32 32 VTop 2
WINDOW 3 0 32 VBottom 2
SYMATTR InstName D2
SYMATTR Value BAV199HM
SYMBOL cap 2656 16 R0
SYMATTR InstName C5
SYMATTR Value 560p
SYMBOL cap 2400 -176 R0
SYMATTR InstName C6
SYMATTR Value 4.7p
SYMBOL cap 2320 -352 R90
WINDOW 0 0 32 VBottom 2
WINDOW 3 32 32 VTop 2
SYMATTR InstName C7
SYMATTR Value 10p
SYMBOL res 2496 -208 R0
SYMATTR InstName R10
SYMATTR Value 6k
SYMBOL res 2656 128 R0
SYMATTR InstName R11
SYMATTR Value 200
SYMBOL res 2352 -224 R90
WINDOW 0 0 56 VBottom 2
WINDOW 3 32 56 VTop 2
SYMATTR InstName R12
SYMATTR Value 1k
SYMBOL diode 2144 -160 R0
SYMATTR InstName D3
SYMATTR Value BAV199HM
SYMBOL AutoGenerated\\ca3140 2064 48 R0
SYMATTR InstName U2
SYMBOL AutoGenerated\\ca3140 2848 32 R0
SYMATTR InstName U4
SYMBOL voltage 1920 -416 R180
WINDOW 0 24 96 Left 2
WINDOW 3 24 16 Left 2
WINDOW 123 0 0 Left 0
WINDOW 39 0 0 Left 0
SYMATTR InstName V2
SYMATTR Value 5
SYMBOL voltage 2000 320 R0
WINDOW 123 0 0 Left 0
WINDOW 39 0 0 Left 0
SYMATTR InstName V3
SYMATTR Value -5
SYMBOL npn 3168 160 R0
SYMATTR InstName Q1
SYMATTR Value BC847A
SYMBOL res 3152 320 R0
SYMATTR InstName R13
SYMATTR Value 1k
SYMBOL voltage 3168 480 R0
WINDOW 123 0 0 Left 0
WINDOW 39 0 0 Left 0
SYMATTR InstName V4
SYMATTR Value PULSE(0 5 0 1m 1m 0.02 0.04)
TEXT -232 232 Left 2 !.tran 0 0.2 0 1u
